!-Generator IDFEditor 1.51
!-Option SortedOrder

!-NOTE: All comments with '!-' are ignored by the IDFEditor and are generated automatically.
!-      Use '!' comments if they need to be retained when using the IDFEditor.


!-   ===========  ALL OBJECTS IN CLASS: VERSION ===========

! File generated by DesignBuilder - 7.0.0.106 03-06-2023 - 10:15:54
! Source file: C:\Users\rodri\Dropbox\Mariela_INFO_COMPARTIDA\GERTRUDIS\Simulación LEED\ED_GERTRUDIS_LEED.dsb
! Geometry convention template : ASHRAE 90.1
! Zone geometry and surface areas : 2-Outer
! Zone volume calculation method : 2-Outer
! Zone floor area calculation method : 2-Outer
! Window to wall ratio method : 2-Outer
Version,
    9.4.0.001;               !- Version Identifier


!-   ===========  ALL OBJECTS IN CLASS: SIMULATIONCONTROL ===========

SimulationControl,
    Yes,                     !- Do Zone Sizing Calculation
    Yes,                     !- Do System Sizing Calculation
    No,                      !- Do Plant Sizing Calculation
    No,                      !- Run Simulation for Sizing Periods
    Yes,                     !- Run Simulation for Weather File Run Periods
    ,                        !- Do HVAC Sizing Simulation for Sizing Periods
    ;                        !- Maximum Number of HVAC Sizing Simulation Passes


!-   ===========  ALL OBJECTS IN CLASS: BUILDING ===========

Building,
    Building,                !- Name
    0,                       !- North Axis {deg}
    Suburbs,                 !- Terrain
    0.04,                    !- Loads Convergence Tolerance Value {W}
    0.4,                     !- Temperature Convergence Tolerance Value {deltaC}
    FullExterior,            !- Solar Distribution
    25,                      !- Maximum Number of Warmup Days
    6;                       !- Minimum Number of Warmup Days


!-   ===========  ALL OBJECTS IN CLASS: SHADOWCALCULATION ===========

ShadowCalculation,
    PolygonClipping,         !- Shading Calculation Method
    Periodic,                !- Shading Calculation Update Frequency Method
    20,                      !- Shading Calculation Update Frequency
    15000,                   !- Maximum Figures in Shadow Overlap Calculations
    SutherlandHodgman,       !- Polygon Clipping Algorithm
    ,                        !- Pixel Counting Resolution
    SimpleSkyDiffuseModeling,!- Sky Diffuse Modeling Algorithm
    No,                      !- Output External Shading Calculation Results
    Yes,                     !- Disable Self-Shading Within Shading Zone Groups
    Yes;                     !- Disable Self-Shading From Shading Zone Groups to Other Zones


!-   ===========  ALL OBJECTS IN CLASS: SURFACECONVECTIONALGORITHM:INSIDE ===========

SurfaceConvectionAlgorithm:Inside,
    TARP;                    !- Algorithm


!-   ===========  ALL OBJECTS IN CLASS: SURFACECONVECTIONALGORITHM:OUTSIDE ===========

SurfaceConvectionAlgorithm:Outside,
    DOE-2;                   !- Algorithm


!-   ===========  ALL OBJECTS IN CLASS: HEATBALANCEALGORITHM ===========

HeatBalanceAlgorithm,
    ConductionTransferFunction,  !- Algorithm
    2000,                    !- Surface Temperature Upper Limit {C}
    0.00000001,              !- Minimum Surface Convection Heat Transfer Coefficient Value {W/m2-K}
    1000;                    !- Maximum Surface Convection Heat Transfer Coefficient Value {W/m2-K}


!-   ===========  ALL OBJECTS IN CLASS: ZONECAPACITANCEMULTIPLIER:RESEARCHSPECIAL ===========

ZoneCapacitanceMultiplier:ResearchSpecial,
    All,                     !- Name
    ,                        !- Zone or ZoneList Name
    1,                       !- Temperature Capacity Multiplier
    1.0,                     !- Humidity Capacity Multiplier
    1.0,                     !- Carbon Dioxide Capacity Multiplier
    1.0;                     !- Generic Contaminant Capacity Multiplier


!-   ===========  ALL OBJECTS IN CLASS: TIMESTEP ===========

Timestep,
    6;                       !- Number of Timesteps per Hour


!-   ===========  ALL OBJECTS IN CLASS: CONVERGENCELIMITS ===========

ConvergenceLimits,
    1,                       !- Minimum System Timestep {minutes}
    25;                      !- Maximum HVAC Iterations


!-   ===========  ALL OBJECTS IN CLASS: COMPLIANCE:BUILDING ===========

Compliance:Building,
    =$Angulo;                !- Building Rotation for Appendix G {deg}


!-   ===========  ALL OBJECTS IN CLASS: SITE:LOCATION ===========

! Hourly weather file: C:\ProgramData\DesignBuilder\Weather Data\CHL_SANTIAGO_IWEC.epw
Site:Location,
    GERTUDRIS (01-01:31-12)  (01-01:31-12),  !- Name
    -33.38,                  !- Latitude {deg}
    -70.78,                  !- Longitude {deg}
    -4,                      !- Time Zone {hr}
    474;                     !- Elevation {m}


!-   ===========  ALL OBJECTS IN CLASS: SIZINGPERIOD:DESIGNDAY ===========

SizingPeriod:DesignDay,
    Summer Design Day in GERTUDRIS (01-01:31-12) Jun,  !- Name
    6,                       !- Month
    15,                      !- Day of Month
    SummerDesignDay,         !- Day Type
    31.8,                    !- Maximum Dry-Bulb Temperature {C}
    17,                      !- Daily Dry-Bulb Temperature Range {deltaC}
    ,                        !- Dry-Bulb Temperature Range Modifier Type
    ,                        !- Dry-Bulb Temperature Range Modifier Day Schedule Name
    WetBulb,                 !- Humidity Condition Type
    17.6,                    !- Wetbulb or DewPoint at Maximum Dry-Bulb {C}
    ,                        !- Humidity Condition Day Schedule Name
    ,                        !- Humidity Ratio at Maximum Dry-Bulb {kgWater/kgDryAir}
    ,                        !- Enthalpy at Maximum Dry-Bulb {J/kg}
    ,                        !- Daily Wet-Bulb Temperature Range {deltaC}
    95758.8,                 !- Barometric Pressure {Pa}
    0,                       !- Wind Speed {m/s}
    0,                       !- Wind Direction {deg}
    No,                      !- Rain Indicator
    No,                      !- Snow Indicator
    Yes,                     !- Daylight Saving Time Indicator
    ASHRAEClearSky,          !- Solar Model Indicator
    ,                        !- Beam Solar Day Schedule Name
    ,                        !- Diffuse Solar Day Schedule Name
    ,                        !- ASHRAE Clear Sky Optical Depth for Beam Irradiance (taub) {dimensionless}
    ,                        !- ASHRAE Clear Sky Optical Depth for Diffuse Irradiance (taud) {dimensionless}
    0.98;                    !- Sky Clearness

SizingPeriod:DesignDay,
    Winter Design Day in GERTUDRIS (01-01:31-12),  !- Name
    7,                       !- Month
    15,                      !- Day of Month
    WinterDesignDay,         !- Day Type
    -1.1,                    !- Maximum Dry-Bulb Temperature {C}
    0,                       !- Daily Dry-Bulb Temperature Range {deltaC}
    ,                        !- Dry-Bulb Temperature Range Modifier Type
    ,                        !- Dry-Bulb Temperature Range Modifier Day Schedule Name
    WetBulb,                 !- Humidity Condition Type
    -1.1,                    !- Wetbulb or DewPoint at Maximum Dry-Bulb {C}
    ,                        !- Humidity Condition Day Schedule Name
    ,                        !- Humidity Ratio at Maximum Dry-Bulb {kgWater/kgDryAir}
    ,                        !- Enthalpy at Maximum Dry-Bulb {J/kg}
    ,                        !- Daily Wet-Bulb Temperature Range {deltaC}
    95758.8,                 !- Barometric Pressure {Pa}
    7.3,                     !- Wind Speed {m/s}
    0,                       !- Wind Direction {deg}
    No,                      !- Rain Indicator
    No,                      !- Snow Indicator
    No,                      !- Daylight Saving Time Indicator
    ,                        !- Solar Model Indicator
    ,                        !- Beam Solar Day Schedule Name
    ,                        !- Diffuse Solar Day Schedule Name
    ,                        !- ASHRAE Clear Sky Optical Depth for Beam Irradiance (taub) {dimensionless}
    ,                        !- ASHRAE Clear Sky Optical Depth for Diffuse Irradiance (taud) {dimensionless}
    0;                       !- Sky Clearness


!-   ===========  ALL OBJECTS IN CLASS: RUNPERIOD ===========

RunPeriod,
    GERTUDRIS (01-01:31-12), !- Name
    1,                       !- Begin Month
    1,                       !- Begin Day of Month
    2002,                    !- Begin Year
    12,                      !- End Month
    31,                      !- End Day of Month
    2002,                    !- End Year
    ,                        !- Day of Week for Start Day
    No,                      !- Use Weather File Holidays and Special Days
    No,                      !- Use Weather File Daylight Saving Period
    Yes,                     !- Apply Weekend Holiday Rule
    Yes,                     !- Use Weather File Rain Indicators
    Yes,                     !- Use Weather File Snow Indicators
    No;                      !- Treat Weather as Actual


!-   ===========  ALL OBJECTS IN CLASS: RUNPERIODCONTROL:DAYLIGHTSAVINGTIME ===========

RunPeriodControl:DaylightSavingTime,
    2nd Saturday in October, !- Start Date
    2nd Saturday in March;   !- End Date


!-   ===========  ALL OBJECTS IN CLASS: SITE:GROUNDTEMPERATURE:BUILDINGSURFACE ===========

Site:GroundTemperature:BuildingSurface,
    18,                      !- January Ground Temperature {C}
    18,                      !- February Ground Temperature {C}
    18,                      !- March Ground Temperature {C}
    18,                      !- April Ground Temperature {C}
    18,                      !- May Ground Temperature {C}
    18,                      !- June Ground Temperature {C}
    18,                      !- July Ground Temperature {C}
    18,                      !- August Ground Temperature {C}
    18,                      !- September Ground Temperature {C}
    18,                      !- October Ground Temperature {C}
    18,                      !- November Ground Temperature {C}
    18;                      !- December Ground Temperature {C}


!-   ===========  ALL OBJECTS IN CLASS: SITE:GROUNDTEMPERATURE:FCFACTORMETHOD ===========

!
!
!
! Site:GroundTemperature:BuildingSurface,
!     18,                      !- January Ground Temperature {C}
!     18,                      !- February Ground Temperature {C}
!     18,                      !- March Ground Temperature {C}
!     18,                      !- April Ground Temperature {C}
!     18,                      !- May Ground Temperature {C}
!     18,                      !- June Ground Temperature {C}
!     18,                      !- July Ground Temperature {C}
!     18,                      !- August Ground Temperature {C}
!     18,                      !- September Ground Temperature {C}
!     18,                      !- October Ground Temperature {C}
!     18,                      !- November Ground Temperature {C}
!     18;                      !- December Ground Temperature {C}
Site:GroundTemperature:FCfactorMethod,
    18.03,                   !- January Ground Temperature {C}
    20.05,                   !- February Ground Temperature {C}
    20.54,                   !- March Ground Temperature {C}
    19.99,                   !- April Ground Temperature {C}
    17.11,                   !- May Ground Temperature {C}
    13.95,                   !- June Ground Temperature {C}
    11.03,                   !- July Ground Temperature {C}
    8.95,                    !- August Ground Temperature {C}
    8.41,                    !- September Ground Temperature {C}
    9.49,                    !- October Ground Temperature {C}
    11.96,                   !- November Ground Temperature {C}
    15.03;                   !- December Ground Temperature {C}


!-   ===========  ALL OBJECTS IN CLASS: SITE:GROUNDTEMPERATURE:SHALLOW ===========

Site:GroundTemperature:Shallow,
    14,                      !- January Surface Ground Temperature {C}
    14,                      !- February Surface Ground Temperature {C}
    14,                      !- March Surface Ground Temperature {C}
    14,                      !- April Surface Ground Temperature {C}
    14,                      !- May Surface Ground Temperature {C}
    14,                      !- June Surface Ground Temperature {C}
    14,                      !- July Surface Ground Temperature {C}
    14,                      !- August Surface Ground Temperature {C}
    14,                      !- September Surface Ground Temperature {C}
    14,                      !- October Surface Ground Temperature {C}
    14,                      !- November Surface Ground Temperature {C}
    14;                      !- December Surface Ground Temperature {C}


!-   ===========  ALL OBJECTS IN CLASS: SITE:GROUNDTEMPERATURE:DEEP ===========

Site:GroundTemperature:Deep,
    14,                      !- January Deep Ground Temperature {C}
    14,                      !- February Deep Ground Temperature {C}
    14,                      !- March Deep Ground Temperature {C}
    14,                      !- April Deep Ground Temperature {C}
    14,                      !- May Deep Ground Temperature {C}
    14,                      !- June Deep Ground Temperature {C}
    14,                      !- July Deep Ground Temperature {C}
    14,                      !- August Deep Ground Temperature {C}
    14,                      !- September Deep Ground Temperature {C}
    14,                      !- October Deep Ground Temperature {C}
    14,                      !- November Deep Ground Temperature {C}
    14;                      !- December Deep Ground Temperature {C}


!-   ===========  ALL OBJECTS IN CLASS: SITE:GROUNDREFLECTANCE ===========

Site:GroundReflectance,
    0.2,                     !- January Ground Reflectance {dimensionless}
    0.2,                     !- February Ground Reflectance {dimensionless}
    0.2,                     !- March Ground Reflectance {dimensionless}
    0.2,                     !- April Ground Reflectance {dimensionless}
    0.2,                     !- May Ground Reflectance {dimensionless}
    0.2,                     !- June Ground Reflectance {dimensionless}
    0.2,                     !- July Ground Reflectance {dimensionless}
    0.2,                     !- August Ground Reflectance {dimensionless}
    0.2,                     !- September Ground Reflectance {dimensionless}
    0.2,                     !- October Ground Reflectance {dimensionless}
    0.2,                     !- November Ground Reflectance {dimensionless}
    0.2;                     !- December Ground Reflectance {dimensionless}


!-   ===========  ALL OBJECTS IN CLASS: SITE:GROUNDREFLECTANCE:SNOWMODIFIER ===========

Site:GroundReflectance:SnowModifier,
    2.0,                     !- Ground Reflected Solar Modifier
    2.0;                     !- Daylighting Ground Reflected Solar Modifier


!-   ===========  ALL OBJECTS IN CLASS: SCHEDULETYPELIMITS ===========

! Not limited
ScheduleTypeLimits,
    Any Number;              !- Name

ScheduleTypeLimits,
    Fraction,                !- Name
    0.0,                     !- Lower Limit Value
    1.0,                     !- Upper Limit Value
    CONTINUOUS;              !- Numeric Type

ScheduleTypeLimits,
    Temperature,             !- Name
    -60,                     !- Lower Limit Value
    200,                     !- Upper Limit Value
    CONTINUOUS;              !- Numeric Type

ScheduleTypeLimits,
    Control Type,            !- Name
    0,                       !- Lower Limit Value
    4,                       !- Upper Limit Value
    DISCRETE;                !- Numeric Type

ScheduleTypeLimits,
    On/Off,                  !- Name
    0,                       !- Lower Limit Value
    1,                       !- Upper Limit Value
    DISCRETE;                !- Numeric Type

ScheduleTypeLimits,
    HVACTemplate Any Number; !- Name


!-   ===========  ALL OBJECTS IN CLASS: SCHEDULE:DAY:HOURLY ===========

! off heating day
Schedule:Day:Hourly,
    0,                       !- Name
    Any Number,              !- Schedule Type Limits Name
    0,                       !- Hour 1
    0,                       !- Hour 2
    0,                       !- Hour 3
    0,                       !- Hour 4
    0,                       !- Hour 5
    0,                       !- Hour 6
    0,                       !- Hour 7
    0,                       !- Hour 8
    0,                       !- Hour 9
    0,                       !- Hour 10
    0,                       !- Hour 11
    0,                       !- Hour 12
    0,                       !- Hour 13
    0,                       !- Hour 14
    0,                       !- Hour 15
    0,                       !- Hour 16
    0,                       !- Hour 17
    0,                       !- Hour 18
    0,                       !- Hour 19
    0,                       !- Hour 20
    0,                       !- Hour 21
    0,                       !- Hour 22
    0,                       !- Hour 23
    0;                       !- Hour 24

! off cooling day
Schedule:Day:Hourly,
    50,                      !- Name
    Any Number,              !- Schedule Type Limits Name
    50,                      !- Hour 1
    50,                      !- Hour 2
    50,                      !- Hour 3
    50,                      !- Hour 4
    50,                      !- Hour 5
    50,                      !- Hour 6
    50,                      !- Hour 7
    50,                      !- Hour 8
    50,                      !- Hour 9
    50,                      !- Hour 10
    50,                      !- Hour 11
    50,                      !- Hour 12
    50,                      !- Hour 13
    50,                      !- Hour 14
    50,                      !- Hour 15
    50,                      !- Hour 16
    50,                      !- Hour 17
    50,                      !- Hour 18
    50,                      !- Hour 19
    50,                      !- Hour 20
    50,                      !- Hour 21
    50,                      !- Hour 22
    50,                      !- Hour 23
    50;                      !- Hour 24

! used in seasonal schedules
Schedule:Day:Hourly,
    Off,                     !- Name
    Fraction,                !- Schedule Type Limits Name
    0,                       !- Hour 1
    0,                       !- Hour 2
    0,                       !- Hour 3
    0,                       !- Hour 4
    0,                       !- Hour 5
    0,                       !- Hour 6
    0,                       !- Hour 7
    0,                       !- Hour 8
    0,                       !- Hour 9
    0,                       !- Hour 10
    0,                       !- Hour 11
    0,                       !- Hour 12
    0,                       !- Hour 13
    0,                       !- Hour 14
    0,                       !- Hour 15
    0,                       !- Hour 16
    0,                       !- Hour 17
    0,                       !- Hour 18
    0,                       !- Hour 19
    0,                       !- Hour 20
    0,                       !- Hour 21
    0,                       !- Hour 22
    0,                       !- Hour 23
    0;                       !- Hour 24

! -------------------- Control type schedules (for heating & cooling) ----------------------
Schedule:Day:Hourly,
    Summer Control Type Day Sch,  !- Name
    Control Type,            !- Schedule Type Limits Name
    4,                       !- Hour 1
    4,                       !- Hour 2
    4,                       !- Hour 3
    4,                       !- Hour 4
    4,                       !- Hour 5
    4,                       !- Hour 6
    4,                       !- Hour 7
    4,                       !- Hour 8
    4,                       !- Hour 9
    4,                       !- Hour 10
    4,                       !- Hour 11
    4,                       !- Hour 12
    4,                       !- Hour 13
    4,                       !- Hour 14
    4,                       !- Hour 15
    4,                       !- Hour 16
    4,                       !- Hour 17
    4,                       !- Hour 18
    4,                       !- Hour 19
    4,                       !- Hour 20
    4,                       !- Hour 21
    4,                       !- Hour 22
    4,                       !- Hour 23
    4;                       !- Hour 24

Schedule:Day:Hourly,
    Winter Control Type Day Sch,  !- Name
    Control Type,            !- Schedule Type Limits Name
    4,                       !- Hour 1
    4,                       !- Hour 2
    4,                       !- Hour 3
    4,                       !- Hour 4
    4,                       !- Hour 5
    4,                       !- Hour 6
    4,                       !- Hour 7
    4,                       !- Hour 8
    4,                       !- Hour 9
    4,                       !- Hour 10
    4,                       !- Hour 11
    4,                       !- Hour 12
    4,                       !- Hour 13
    4,                       !- Hour 14
    4,                       !- Hour 15
    4,                       !- Hour 16
    4,                       !- Hour 17
    4,                       !- Hour 18
    4,                       !- Hour 19
    4,                       !- Hour 20
    4,                       !- Hour 21
    4,                       !- Hour 22
    4,                       !- Hour 23
    4;                       !- Hour 24

Schedule:Day:Hourly,
    Summer Control Type Day Sch - cool,  !- Name
    Control Type,            !- Schedule Type Limits Name
    2,                       !- Hour 1
    2,                       !- Hour 2
    2,                       !- Hour 3
    2,                       !- Hour 4
    2,                       !- Hour 5
    2,                       !- Hour 6
    2,                       !- Hour 7
    2,                       !- Hour 8
    2,                       !- Hour 9
    2,                       !- Hour 10
    2,                       !- Hour 11
    2,                       !- Hour 12
    2,                       !- Hour 13
    2,                       !- Hour 14
    2,                       !- Hour 15
    2,                       !- Hour 16
    2,                       !- Hour 17
    2,                       !- Hour 18
    2,                       !- Hour 19
    2,                       !- Hour 20
    2,                       !- Hour 21
    2,                       !- Hour 22
    2,                       !- Hour 23
    2;                       !- Hour 24

Schedule:Day:Hourly,
    Winter Control Type Day Sch - heat,  !- Name
    Control Type,            !- Schedule Type Limits Name
    1,                       !- Hour 1
    1,                       !- Hour 2
    1,                       !- Hour 3
    1,                       !- Hour 4
    1,                       !- Hour 5
    1,                       !- Hour 6
    1,                       !- Hour 7
    1,                       !- Hour 8
    1,                       !- Hour 9
    1,                       !- Hour 10
    1,                       !- Hour 11
    1,                       !- Hour 12
    1,                       !- Hour 13
    1,                       !- Hour 14
    1,                       !- Hour 15
    1,                       !- Hour 16
    1,                       !- Hour 17
    1,                       !- Hour 18
    1,                       !- Hour 19
    1,                       !- Hour 20
    1,                       !- Hour 21
    1,                       !- Hour 22
    1,                       !- Hour 23
    1;                       !- Hour 24


!-   ===========  ALL OBJECTS IN CLASS: SCHEDULE:WEEK:DAILY ===========

Schedule:Week:Daily,
    Off,                     !- Name
    Off,                     !- Sunday Schedule:Day Name
    Off,                     !- Monday Schedule:Day Name
    Off,                     !- Tuesday Schedule:Day Name
    Off,                     !- Wednesday Schedule:Day Name
    Off,                     !- Thursday Schedule:Day Name
    Off,                     !- Friday Schedule:Day Name
    Off,                     !- Saturday Schedule:Day Name
    Off,                     !- Holiday Schedule:Day Name
    Off,                     !- SummerDesignDay Schedule:Day Name
    Off,                     !- WinterDesignDay Schedule:Day Name
    Off,                     !- CustomDay1 Schedule:Day Name
    Off;                     !- CustomDay2 Schedule:Day Name

Schedule:Week:Daily,
    Summer Control Type Week Sch,  !- Name
    Summer Control Type Day Sch,  !- Sunday Schedule:Day Name
    Summer Control Type Day Sch,  !- Monday Schedule:Day Name
    Summer Control Type Day Sch,  !- Tuesday Schedule:Day Name
    Summer Control Type Day Sch,  !- Wednesday Schedule:Day Name
    Summer Control Type Day Sch,  !- Thursday Schedule:Day Name
    Summer Control Type Day Sch,  !- Friday Schedule:Day Name
    Summer Control Type Day Sch,  !- Saturday Schedule:Day Name
    Summer Control Type Day Sch,  !- Holiday Schedule:Day Name
    Summer Control Type Day Sch,  !- SummerDesignDay Schedule:Day Name
    Summer Control Type Day Sch,  !- WinterDesignDay Schedule:Day Name
    Summer Control Type Day Sch,  !- CustomDay1 Schedule:Day Name
    Summer Control Type Day Sch;  !- CustomDay2 Schedule:Day Name

Schedule:Week:Daily,
    Winter Control Type Week Sch,  !- Name
    Winter Control Type Day Sch,  !- Sunday Schedule:Day Name
    Winter Control Type Day Sch,  !- Monday Schedule:Day Name
    Winter Control Type Day Sch,  !- Tuesday Schedule:Day Name
    Winter Control Type Day Sch,  !- Wednesday Schedule:Day Name
    Winter Control Type Day Sch,  !- Thursday Schedule:Day Name
    Winter Control Type Day Sch,  !- Friday Schedule:Day Name
    Winter Control Type Day Sch,  !- Saturday Schedule:Day Name
    Winter Control Type Day Sch,  !- Holiday Schedule:Day Name
    Winter Control Type Day Sch,  !- SummerDesignDay Schedule:Day Name
    Winter Control Type Day Sch,  !- WinterDesignDay Schedule:Day Name
    Winter Control Type Day Sch,  !- CustomDay1 Schedule:Day Name
    Winter Control Type Day Sch;  !- CustomDay2 Schedule:Day Name

Schedule:Week:Daily,
    Summer Control Type Week Sch - cool,  !- Name
    Summer Control Type Day Sch - cool,  !- Sunday Schedule:Day Name
    Summer Control Type Day Sch - cool,  !- Monday Schedule:Day Name
    Summer Control Type Day Sch - cool,  !- Tuesday Schedule:Day Name
    Summer Control Type Day Sch - cool,  !- Wednesday Schedule:Day Name
    Summer Control Type Day Sch - cool,  !- Thursday Schedule:Day Name
    Summer Control Type Day Sch - cool,  !- Friday Schedule:Day Name
    Summer Control Type Day Sch - cool,  !- Saturday Schedule:Day Name
    Summer Control Type Day Sch - cool,  !- Holiday Schedule:Day Name
    Summer Control Type Day Sch - cool,  !- SummerDesignDay Schedule:Day Name
    Summer Control Type Day Sch - cool,  !- WinterDesignDay Schedule:Day Name
    Summer Control Type Day Sch - cool,  !- CustomDay1 Schedule:Day Name
    Summer Control Type Day Sch - cool;  !- CustomDay2 Schedule:Day Name

Schedule:Week:Daily,
    Winter Control Type Week Sch - heat,  !- Name
    Winter Control Type Day Sch - heat,  !- Sunday Schedule:Day Name
    Winter Control Type Day Sch - heat,  !- Monday Schedule:Day Name
    Winter Control Type Day Sch - heat,  !- Tuesday Schedule:Day Name
    Winter Control Type Day Sch - heat,  !- Wednesday Schedule:Day Name
    Winter Control Type Day Sch - heat,  !- Thursday Schedule:Day Name
    Winter Control Type Day Sch - heat,  !- Friday Schedule:Day Name
    Winter Control Type Day Sch - heat,  !- Saturday Schedule:Day Name
    Winter Control Type Day Sch - heat,  !- Holiday Schedule:Day Name
    Winter Control Type Day Sch - heat,  !- SummerDesignDay Schedule:Day Name
    Winter Control Type Day Sch - heat,  !- WinterDesignDay Schedule:Day Name
    Winter Control Type Day Sch - heat,  !- CustomDay1 Schedule:Day Name
    Winter Control Type Day Sch - heat;  !- CustomDay2 Schedule:Day Name


!-   ===========  ALL OBJECTS IN CLASS: SCHEDULE:YEAR ===========

Schedule:Year,
    Zone Control Type Sched, !- Name
    Control Type,            !- Schedule Type Limits Name
    Summer Control Type Week Sch,  !- Schedule:Week Name 1
    1,                       !- Start Month 1
    1,                       !- Start Day 1
    3,                       !- End Month 1
    31,                      !- End Day 1
    Winter Control Type Week Sch,  !- Schedule:Week Name 2
    4,                       !- Start Month 2
    1,                       !- Start Day 2
    9,                       !- End Month 2
    30,                      !- End Day 2
    Summer Control Type Week Sch,  !- Schedule:Week Name 3
    10,                      !- Start Month 3
    1,                       !- Start Day 3
    12,                      !- End Month 3
    31;                      !- End Day 3


!-   ===========  ALL OBJECTS IN CLASS: SCHEDULE:COMPACT ===========

! Name
! Type
! Type
! All days in year
! All hours in day
Schedule:Compact,
    On,                      !- Name
    Any Number,              !- Schedule Type Limits Name